New England/MatPower Cases/Medium/Fall106Tight.m
% Case saved by PowerWorld Simulator, version 19, build date July 14, 2016
function mpc = Fall106
mpc.version = '2';
mpc.baseMVA =  100.00;

%% bus data 
mpc.bus = [
      1 2      0.00     0.00      0.00     0.00    1 1.1170028   -22.03528  345.00   1   1.060   1.000    26.74     0.00 0  0
      2 1     97.82    26.80      0.00     0.00    1 1.0392168   -22.04988  345.00   1   1.040   0.950    26.74    -0.01 0  0
      3 2      0.00     0.00      0.00     0.00    1 1.0200000   -11.45042  138.00   1   1.060   1.000    26.35     0.00 0  0
      4 1     70.00    17.29      0.00     0.00    1 0.9888237   -22.52547  138.00   1   1.040   0.950    26.73    -0.00 0  0
      5 1     74.91    26.86      0.00     0.00    1 0.9924270   -19.98240  230.00   1   1.040   0.950    26.72    -0.00 0  0
      6 1     70.06    22.37      0.00     0.00    1 1.0133049   -10.24400  138.00   1   1.040   0.950    26.72     0.00 0  0
      7 2    108.60    41.69      0.00     0.00    1 1.0200000   -19.23210  138.00   1   1.060   1.000    26.72     0.00 0  0
      8 2    100.23    29.38      0.00     0.00    1 1.0200000   -17.52297  230.00   1   1.060   1.000    26.73     0.00 0  0
      9 1      0.00     0.00      0.00     0.00    1 1.0296307   -18.86321  345.00   1   1.040   0.950    26.73    -0.00 0  0
     10 3     70.73    18.59      0.00     0.00    1 1.0200000     0.00000  138.00   1   1.060   1.000    26.72     0.00 0  0
     11 1      0.00     0.00      0.00     0.00    1 1.0175162    -1.05284  138.00   1   1.040   0.950    26.72    -0.00 0  0
     12 1      2.11     0.62      0.00     0.00    1 1.0169513    -1.89644  138.00   1   1.040   0.950    26.72    -0.00 0  0
     13 1      0.00     0.00      0.00     0.00    1 1.0172474    -4.08558  345.00   1   1.040   0.950    26.72    -0.00 0  0
     14 1     97.39    27.81      0.00     0.00    1 1.0163594   -10.90310  230.00   1   1.040   0.950    26.72    -0.00 0  0
     15 1    120.95    27.77      0.00     0.00    1 1.0103230   -14.78171  230.00   1   1.040   0.950    26.72     0.00 0  0
     16 1    143.27    32.92      0.00     0.00    1 1.0079157   -17.98200  138.00   1   1.040   0.950    26.71    -0.00 0  0
     17 1     69.28    20.01      0.00     0.00    1 0.9915340   -20.20745  138.00   1   1.040   0.950    26.66     0.01 0  0
     18 1     81.27    20.48      0.00     0.00    1 0.9898659   -19.35002  138.00   1   1.040   0.950    26.49     0.05 0  0
     19 1     85.59    24.13      0.00     0.00    1 0.9958916   -17.80241  138.00   1   1.040   0.950    26.72    -0.00 0  0
     20 1     82.57    23.82      0.00     0.00    1 1.0040885   -15.23102   69.00   1   1.040   0.950    26.72    -0.00 0  0
     21 1    123.71    31.36      0.00     0.00    1 0.9880273   -20.79847  138.00   1   1.040   0.950    26.72    -0.00 0  0
     22 1    110.52    32.85      0.00     0.00    1 0.9992968    -7.56311  230.00   1   1.040   0.950    26.72    -0.00 0  0
     23 1     79.28    21.61      0.00     0.00    1 1.0012947    -9.55362  230.00   1   1.040   0.950    26.72    -0.00 0  0
     24 2     91.58    30.31      0.00     0.00    1 1.0151835   -12.43819  230.00   1   1.060   1.000    26.72    -0.00 0  0
     25 1     67.59    15.14      0.00     0.00    1 1.0116652   -22.01649  230.00   1   1.040   0.950    26.73    -0.00 0  0
     26 2     80.97    20.45      0.00     0.00    1 1.0200000   -31.62060  345.00   1   1.060   1.000    26.72     0.00 0  0
     27 1     80.58    21.16      0.00     0.00    1 0.9988335   -29.76459  230.00   1   1.040   0.950    26.72     0.00 0  0
     28 2    125.49    33.39      0.00     0.00    1 1.0200000   -26.04008  138.00   1   1.060   1.000    26.72     0.00 0  0
     29 1     73.17    19.09      0.00     0.00    1 1.0169862   -23.88626  138.00   1   1.040   0.950    26.72     0.00 0  0
     30 2      0.00     0.00      0.00     0.00    1 1.0284587   -20.51108   14.00   1   1.060   1.000    26.74     0.00 0  0
     31 2      0.00     0.00      0.00     0.00    1 1.0200000    -6.00321   14.00   1   1.060   1.000    26.72     0.00 0  0
     32 2      0.00     0.00      0.00     0.00    1 1.0200000     2.27806   14.00   1   1.060   1.000    26.72     0.00 0  0
     33 2    114.45    29.28      0.00     0.00    1 1.0200000   -14.93186   14.00   1   1.060   1.000    26.72    -0.00 0  0
     34 2     65.58    19.24      0.00     0.00    1 1.0200000   -12.16330   14.00   1   1.060   1.000    26.72     0.00 0  0
     35 2      0.00     0.00      0.00     0.00    1 1.0200000     1.90196   14.00   1   1.060   1.000    26.72     0.00 0  0
     36 2      0.00     0.00      0.00     0.00    1 1.0200000    -6.86256   14.00   1   1.060   1.000    26.72     0.00 0  0
     37 2      0.00     0.00      0.00     0.00    1 1.0200000   -20.39385   14.00   1   1.060   1.000    26.73     0.00 0  0
     38 2      0.00     0.00      0.00     0.00    1 1.0200000   -21.61714   14.00   1   1.060   1.000    26.72     0.00 0  0
     39 1     74.11    20.99      0.00     0.00    1 1.0265294   -28.90306  345.00   1   1.040   0.950    26.73    -0.01 0  0
     40 1     76.12    23.43      0.00     0.00    1 1.0131953   -32.79191  345.00   1   1.040   0.950    26.72    -0.00 0  0
     41 1    103.55    24.86      0.00     0.00    1 1.0020046   -29.21662  345.00   1   1.040   0.950    26.72     0.00 0  0
     42 1    116.57    32.29      0.00     0.00    1 1.0264956   -34.66724  345.00   1   1.040   0.950    26.72    -0.00 0  0
     43 1    101.27    28.83      0.00     0.00    1 1.0186077   -31.83644  345.00   1   1.040   0.950    26.72    -0.00 0  0
     44 1     64.21    17.77      0.00     0.00    1 1.0115304   -20.86798  230.00   1   1.040   0.950    26.73    -0.00 0  0
     45 1     99.54    24.99      0.00     0.00    1 1.0165326   -20.64270  345.00   1   1.040   0.950    26.73    -0.00 0  0
     46 1     88.41    24.42      0.00     0.00    1 0.9756015   -22.49686  138.00   1   1.040   0.950    26.72    -0.00 0  0
     47 1     78.20    22.24      0.00     0.00    1 0.9456833   -25.61115  138.00   1   1.040   0.950    26.72    -0.00 0  0
     48 1     97.09    29.34      0.00     0.00    1 0.9886627   -23.02086  345.00   1   1.040   0.950    26.73    -0.01 0  0
     49 2     56.55    18.62      0.00     0.00    1 1.0200000   -16.93647  138.00   1   1.060   1.000    26.73     0.00 0  0
     50 1     92.67    24.58      0.00     0.00    1 0.9938620   -21.48645  138.00   1   1.040   0.950    26.73    -0.00 0  0
     51 1     77.45    25.52      0.00     0.00    1 0.9876371   -25.21776  138.00   1   1.040   0.950    26.73    -0.00 0  0
     52 2    103.14    29.05      0.00     0.00    1 1.0200000   -20.42682  345.00   1   1.060   1.000    26.73     0.00 0  0
     53 1    159.50    39.86      0.00     0.00    1 0.9831644   -24.50439  138.00   1   1.040   0.950    26.72    -0.00 0  0
     54 2     59.59    23.06      0.00     0.00    1 1.0200000   -16.94934  230.00   1   1.060   1.000    26.73     0.00 0  0
     55 1     97.38    25.55      0.00     0.00    1 1.0101140   -20.24699  230.00   1   1.040   0.950    26.72    -0.00 0  0
     56 2    107.63    30.54      0.00     0.00    1 1.0200000   -10.86836  345.00   1   1.060   1.000    26.72     0.00 0  0
     57 1     51.31    16.27      0.00     0.00    1 0.9618456   -24.25424  138.00   1   1.040   0.950    26.72    -0.00 0  0
     58 1    130.42    43.64      0.00     0.00    1 1.0036377   -11.80163  345.00   1   1.040   0.950    26.72    -0.00 0  0
     59 1     74.50    26.37      0.00     0.00    1 1.0145355   -14.00095  345.00   1   1.040   0.950    26.71     0.00 0  0
     60 1     85.52    26.08      0.00     0.00    1 0.9639826   -22.60770  138.00   1   1.040   0.950    26.72    -0.00 0  0
     61 1    105.20    32.99      0.00     0.00    1 1.0140859   -16.48696  230.00   1   1.040   0.950    26.72     0.00 0  0
     62 1     97.32    27.85      0.00     0.00    1 0.9982774   -12.60205  345.00   1   1.040   0.950    26.72    -0.00 0  0
     63 1     71.16    22.11      0.00     0.00    1 0.9598707   -24.07419  138.00   1   1.040   0.950    26.72    -0.00 0  0
     64 1    172.01    47.36      0.00     0.00    1 0.9760708   -17.83229  138.00   1   1.040   0.950    26.72    -0.00 0  0
     65 1     58.68    18.17      0.00     0.00    1 1.0037994   -19.82191  138.00   1   1.040   0.950    26.73    -0.00 0  0
     66 1     70.03    20.36      0.00     0.00    1 1.0070846   -11.55844  345.00   1   1.040   0.950    26.72    -0.00 0  0
     67 1     86.57    24.75      0.00     0.00    1 0.9818775   -25.31581  138.00   1   1.040   0.950    26.73    -0.00 0  0
     68 1    108.40    29.28      0.00     0.00    1 0.9912490   -24.00598  138.00   1   1.040   0.950    26.73    -0.00 0  0
     69 2     53.87    18.33      0.00     0.00    1 1.0200000    -4.18054  345.00   1   1.060   1.000    26.72     0.00 0  0
     70 1     81.50    27.13      0.00     0.00    1 1.0110628    -6.09620  138.00   1   1.040   0.950    26.72     0.00 0  0
     71 1     61.90    21.13      0.00     0.00    1 1.0120944   -11.00844  345.00   1   1.040   0.950    26.72    -0.00 0  0
     72 2     54.28    18.93      0.00     0.00    1 0.9893907   -25.13538  138.00   1   1.060   1.000    26.73    -0.00 0  0
     73 1     65.81    21.69      0.00     0.00    1 0.9875264   -25.21485  138.00   1   1.040   0.950    26.73    -0.00 0  0
     74 1     73.06    19.81      0.00     0.00    1 1.0006267   -20.74853  345.00   1   1.040   0.950    26.73    -0.00 0  0
     75 1     78.97    25.03      0.00     0.00    1 0.9807669   -22.85404  138.00   1   1.040   0.950    26.73    -0.00 0  0
     76 2    109.13    24.61      0.00     0.00    1 1.0200000   -10.07174  345.00   1   1.060   1.000    26.72     0.00 0  0
     77 1     75.07    19.87      0.00     0.00    1 0.9994005   -29.56352  138.00   1   1.040   0.950    26.72     0.00 0  0
     78 2     94.22    24.32      0.00     0.00    1 1.0392525   -35.93583  345.00   1   1.060   1.000    26.72    -0.00 0  0
     79 1    128.73    33.31      0.00     0.00    1 1.0648838   -43.16922  345.00   1   1.040   0.950    26.72    -0.00 0  0
     80 2    102.59    24.09      0.00     0.00    1 1.0401587   -38.99444  345.00   1   1.060   1.000    26.72    -0.00 0  0
     81 1    110.80    25.22      0.00     0.00    1 1.0302505   -37.15875  345.00   1   1.040   0.950    26.72    -0.00 0  0
     82 2     73.20    21.46      0.00     0.00    1 1.0223439   -31.47762  345.00   1   1.060   1.000    26.72     0.00 0  0
     83 1     77.07    24.20      0.00     0.00    1 1.0242386   -30.33774  345.00   1   1.040   0.950    26.72     0.00 0  0
     84 2     56.83    15.38      0.00     0.00    1 1.0200000   -27.11022  138.00   1   1.060   1.000    26.72     0.00 0  0
     85 1     64.49    19.15      0.00     0.00    1 1.0006813   -28.89314  230.00   1   1.040   0.950    26.72     0.00 0  0
     86 1    106.77    29.22      0.00     0.00    1 0.9903466   -28.37831  138.00   1   1.040   0.950    26.72     0.00 0  0
     87 1    120.93    33.53      0.00     0.00    1 1.0696036   -43.36040  345.00   1   1.040   0.950    26.72    -0.00 0  0
     88 1     93.00    29.16      0.00     0.00    1 1.0124218   -27.09606  138.00   1   1.040   0.950    26.72     0.00 0  0
     89 1     70.64    21.36      0.00     0.00    1 0.9644880   -33.55809  138.00   1   1.040   0.950    26.72     0.00 0  0
     90 1     63.78    23.08      0.00     0.00    1 0.9924243   -10.21782  230.00   1   1.040   0.950    26.72    -0.00 0  0
     91 1     79.80    21.87      0.00     0.00    1 0.9804125   -11.95889  230.00   1   1.040   0.950    26.72    -0.00 0  0
     92 1     74.03    21.56      0.00     0.00    1 0.9897217   -12.30855  345.00   1   1.040   0.950    26.72    -0.00 0  0
     93 1     85.82    22.40      0.00     0.00    1 0.9912660   -13.60502  345.00   1   1.040   0.950    26.72    -0.00 0  0
     94 1    107.48    31.15      0.00     0.00    1 0.9963404   -19.70161  138.00   1   1.040   0.950    26.72    -0.00 0  0
     95 1     96.89    26.58      0.00     0.00    1 0.9859646   -19.11794  138.00   1   1.040   0.950    26.72    -0.00 0  0
     96 1    112.11    27.86      0.00     0.00    1 0.9863537   -18.66465  138.00   1   1.040   0.950    26.72    -0.00 0  0
     97 1    110.29    29.20      0.00     0.00    1 0.9968933   -15.89914  345.00   1   1.040   0.950    26.72    -0.00 0  0
     98 1    114.74    30.47      0.00     0.00    1 1.0093145   -16.07538  345.00   1   1.040   0.950    26.72    -0.00 0  0
     99 1    109.88    26.73      0.00     0.00    1 0.9906982   -17.48976  345.00   1   1.040   0.950    26.72    -0.00 0  0
    100 1     82.74    26.00      0.00     0.00    1 0.9852072    -9.22616  138.00   1   1.040   0.950    26.72    -0.00 0  0
    101 1     78.71    24.08      0.00     0.00    1 0.9886631   -13.95730  345.00   1   1.040   0.950    26.72    -0.00 0  0
    102 1     48.77    17.37      0.00     0.00    1 0.9866637   -20.25607  138.00   1   1.040   0.950    26.72    -0.00 0  0
    103 2    131.39    32.38      0.00     0.00    1 1.0200000   -17.80283  138.00   1   1.060   1.000    26.72     0.00 0  0
    104 1     91.85    23.10      0.00     0.00    1 0.9788349   -20.62412  138.00   1   1.040   0.950    26.72    -0.00 0  0
    105 1     65.87    18.14      0.00     0.00    1 0.9883685   -19.20527  138.00   1   1.040   0.950    26.72    -0.00 0  0
    106 1     65.82    22.71      0.00     0.00    1 0.9783068   -21.43382  138.00   1   1.040   0.950    26.72    -0.00 0  0
    107 1     79.24    20.81      0.00     0.00    1 0.9798017   -20.93594  138.00   1   1.040   0.950    26.72    -0.00 0  0
    108 1    136.02    32.70      0.00     0.00    1 0.9788335   -20.81318  230.00   1   1.040   0.950    26.72    -0.00 0  0
    109 1     99.97    31.28      0.00     0.00    1 0.9783128   -22.84029  138.00   1   1.040   0.950    26.72    -0.00 0  0
    110 1     49.92    17.98      0.00     0.00    1 0.9890244   -18.43856  138.00   1   1.040   0.950    26.72    -0.00 0  0
    111 1     95.63    26.69      0.00     0.00    1 0.9893180   -18.78372  345.00   1   1.040   0.950    26.72    -0.00 0  0
    112 1    132.18    33.82      0.00     0.00    1 0.9662867   -23.29441  138.00   1   1.040   0.950    26.72    -0.00 0  0
    113 1     48.03    16.21      0.00     0.00    1 0.9588459   -24.05939  138.00   1   1.040   0.950    26.72    -0.00 0  0
    114 1     51.18    17.10      0.00     0.00    1 0.9853958   -19.98766  138.00   1   1.040   0.950    26.72    -0.00 0  0
    115 1     58.43    19.22      0.00     0.00    1 0.9927229   -11.86466  345.00   1   1.040   0.950    26.72    -0.00 0  0
    116 1    117.86    29.12      0.00     0.00    1 0.9952423   -20.88216  230.00   1   1.040   0.950    26.72    -0.00 0  0
    117 1     87.82    22.58      0.00     0.00    1 0.9929990   -21.60531  138.00   1   1.040   0.950    26.72    -0.00 0  0
    118 1     49.89    19.02      0.00     0.00    1 0.9862508   -19.74213  138.00   1   1.040   0.950    26.72    -0.00 0  0
    119 1    111.65    30.16      0.00     0.00    1 0.9819843   -20.55866  138.00   1   1.040   0.950    26.72    -0.00 0  0
    120 2     65.96    17.25      0.00     0.00    1 1.0035527   -20.67270  230.00   1   1.060   1.000    26.72    -0.00 0  0
    121 1     82.06    20.72      0.00     0.00    1 0.9993363   -21.14556  230.00   1   1.040   0.950    26.72    -0.00 0  0
    122 1     65.99    19.52      0.00     0.00    1 0.9786219   -23.12183  138.00   1   1.040   0.950    26.72    -0.00 0  0
    123 1    100.85    28.91      0.00     0.00    1 0.9988851   -20.17029  230.00   1   1.040   0.950    26.72    -0.00 0  0
    124 1    102.52    26.34      0.00     0.00    1 0.9763229   -24.28312  230.00   1   1.040   0.950    26.72    -0.00 0  0
    125 1    106.91    28.87      0.00     0.00    1 0.9795420   -22.19521  138.00   1   1.040   0.950    26.72    -0.00 0  0
    126 1     87.47    25.44      0.00     0.00    1 0.9830905   -23.28687  230.00   1   1.040   0.950    26.72    -0.00 0  0
    127 1    102.27    24.02      0.00     0.00    1 0.9806896   -23.97977  230.00   1   1.040   0.950    26.72    -0.00 0  0
    128 2    112.17    24.66      0.00     0.00    1 1.0200000   -15.14862  138.00   1   1.060   1.000    26.70     0.00 0  0
    129 1     81.16    21.77      0.00     0.00    1 0.9762262   -22.30751  138.00   1   1.040   0.950    26.72    -0.00 0  0
    130 2     90.34    25.91      0.00     0.00    1 1.0198667   -17.60198  138.00   1   1.060   1.000    26.71    -0.00 0  0
    131 1    125.25    28.46      0.00     0.00    1 0.9691930   -23.28141  138.00   1   1.040   0.950    26.72    -0.00 0  0
    132 1    115.65    24.20      0.00     0.00    1 0.9923835   -21.73720  230.00   1   1.040   0.950    26.72    -0.00 0  0
    133 1     70.86    19.55      0.00     0.00    1 0.9933250   -22.64975  230.00   1   1.040   0.950    26.72    -0.00 0  0
    134 1     85.86    19.90      0.00     0.00    1 0.9873709   -21.65502  230.00   1   1.040   0.950    26.72    -0.00 0  0
    135 1     61.61    20.83      0.00     0.00    1 1.0016051   -18.61168  345.00   1   1.040   0.950    26.72    -0.00 0  0
    136 1     76.31    21.06      0.00     0.00    1 0.9821060   -20.23932  138.00   1   1.040   0.950    26.72    -0.00 0  0
    137 1     60.20    22.25      0.00     0.00    1 1.0068070   -17.60771  345.00   1   1.040   0.950    26.72    -0.00 0  0
    138 1    109.30    27.26      0.00     0.00    1 0.9891387   -17.94295  345.00   1   1.040   0.950    26.72    -0.00 0  0
    139 1     93.51    25.28      0.00     0.00    1 1.0327826   -23.18144  345.00   1   1.040   0.950    26.74    -0.01 0  0
    140 1    126.17    31.06      0.00     0.00    1 0.9961091    -7.86047  138.00   1   1.040   0.950    26.72    -0.00 0  0
    141 2    112.65    28.67      0.00     0.00    1 1.0200000    -4.21971  345.00   1   1.060   1.000    26.72     0.00 0  0
    142 1     72.39    20.57      0.00     0.00    1 0.9807135   -23.72974  230.00   1   1.040   0.950    26.72    -0.00 0  0
    143 2    107.11    28.89      0.00     0.00    1 1.0200000   -16.89099  230.00   1   1.060   1.000    26.71     0.00 0  0
    144 1    128.94    28.56      0.00     0.00    1 1.0123087   -18.17558  230.00   1   1.040   0.950    26.71     0.00 0  0
    145 1     97.75    25.13      0.00     0.00    1 0.9946789   -18.80774  138.00   1   1.040   0.950    26.69     0.00 0  0
    146 2    105.16    26.87      0.00     0.00    1 1.0110490   -16.93012  345.00   1   1.060   1.000    26.72    -0.00 0  0
    147 1     61.70    17.03      0.00     0.00    1 0.9792203   -21.05662  138.00   1   1.040   0.950    26.72    -0.00 0  0
    148 1     74.24    20.34      0.00     0.00    1 0.9920858   -13.07202  345.00   1   1.040   0.950    26.72    -0.00 0  0
    149 2    132.99    29.37      0.00     0.00    1 1.0200000   -16.60114  138.00   1   1.060   1.000    26.70     0.00 0  0
    150 1     92.88    23.48      0.00     0.00    1 0.9818045   -24.33329  345.00   1   1.040   0.950    26.73    -0.01 0  0
    151 1     76.58    23.00      0.00     0.00    1 1.0084218   -17.42287  345.00   1   1.040   0.950    26.72    -0.00 0  0
    152 1     60.73    15.95      0.00     0.00    1 0.9649432   -23.36642  138.00   1   1.040   0.950    26.72    -0.00 0  0
    153 1     71.57    22.78      0.00     0.00    1 0.9990976   -19.05811  345.00   1   1.040   0.950    26.72    -0.00 0  0
    154 1     89.56    25.83      0.00     0.00    1 0.9931691   -28.29446  230.00   1   1.040   0.950    26.72     0.00 0  0
    155 1     88.45    28.27      0.00     0.00    1 0.9705229   -28.70041  138.00   1   1.040   0.950    26.72     0.00 0  0
    156 1     91.20    26.29      0.00     0.00    1 1.0064879   -22.60679  345.00   1   1.040   0.950    26.72     0.00 0  0
    157 2     90.55    28.41      0.00     0.00    1 1.0200000   -20.17586  138.00   1   1.060   1.000    26.72     0.00 0  0
    158 1     90.83    22.22      0.00     0.00    1 0.9924354   -24.76098  138.00   1   1.040   0.950    26.72    -0.00 0  0
    159 1     94.71    25.40      0.00     0.00    1 1.0072605   -26.41624  345.00   1   1.040   0.950    26.72     0.00 0  0
    160 1    116.94    33.76      0.00     0.00    1 0.9794618   -30.89390  230.00   1   1.040   0.950    26.72     0.00 0  0
    161 1     56.55    16.82      0.00     0.00    1 0.9979051   -24.80324  138.00   1   1.040   0.950    26.72     0.00 0  0
    162 2     84.29    24.34      0.00     0.00    1 1.0200000   -17.99612  345.00   1   1.060   1.000    26.72     0.00 0  0
    163 1    110.77    35.06      0.00     0.00    1 1.0049050   -22.45421  230.00   1   1.040   0.950    26.72    -0.00 0  0
    164 1     79.54    26.22      0.00     0.00    1 0.9839133   -23.16377  138.00   1   1.040   0.950    26.72    -0.00 0  0
    165 2     86.69    23.66      0.00     0.00    1 1.0200000   -15.13361  230.00   1   1.060   1.000    26.72     0.00 0  0
    166 2     80.96    23.31      0.00     0.00    1 1.0200000   -20.68068  138.00   1   1.060   1.000    26.72     0.00 0  0
    167 1     80.84    21.69      0.00     0.00    1 1.0367315   -34.50923  345.00   1   1.040   0.950    26.72    -0.00 0  0
    168 1     51.69    18.43      0.00     0.00    1 0.9952441   -23.19446  230.00   1   1.040   0.950    26.73    -0.00 0  0
    169 1     86.41    26.96      0.00     0.00    1 0.9941126   -24.83950  138.00   1   1.040   0.950    26.72     0.00 0  0
    170 1     90.25    28.08      0.00     0.00    1 0.9626790   -11.12209  138.00   1   1.040   0.950    26.72    -0.00 0  0
    171 1     76.43    20.96      0.00     0.00    1 0.9702827   -10.72092  138.00   1   1.040   0.950    26.72    -0.00 0  0
    172 1     90.84    26.64      0.00     0.00    1 0.9851930    -8.13603  138.00   1   1.040   0.950    26.72    -0.00 0  0
    173 1     78.36    23.09      0.00     0.00    1 0.9834182    -7.68878  138.00   1   1.040   0.950    26.72    -0.00 0  0
    174 1     98.20    28.29      0.00     0.00    1 1.0117459   -12.47817  345.00   1   1.040   0.950    26.72    -0.00 0  0
    175 2     76.51    24.87      0.00     0.00    1 1.0200000   -11.94290  138.00   1   1.060   1.000    26.72     0.00 0  0
    176 2     97.21    29.88      0.00     0.00    1 1.0200000   -16.89936  345.00   1   1.060   1.000    26.72    -0.00 0  0
    177 1    143.84    46.77      0.00     0.00    1 1.0068052   -13.54949  230.00   1   1.040   0.950    26.72    -0.00 0  0
    178 1     71.63    19.91      0.00     0.00    1 0.9953688   -16.51659  138.00   1   1.040   0.950    26.72    -0.00 0  0
    179 1      6.82     1.95      0.00     0.00    1 0.9945325   -16.57797  138.00   1   1.040   0.950    26.72    -0.00 0  0
    180 1     10.31     2.89      0.00     0.00    1 1.0117555   -12.53013  345.00   1   1.040   0.950    26.72    -0.00 0  0
    181 1      0.00     0.00      0.00     0.00    1 1.0350459   -16.18831  345.00   1   1.040   0.950    26.76    -0.04 0  0
    182 1      0.00     0.00      0.00     0.00    1 1.0019959   -20.45923  345.00   1   1.040   0.950    26.73    -0.01 0  0
    183 1      0.00     0.00      0.00     0.00    1 1.0096328   -20.35975  345.00   1   1.040   0.950    26.73    -0.00 0  0
    184 1      0.00     0.00      0.00     0.00    1 1.0154130   -11.99643  230.00   1   1.040   0.950    26.72     0.00 0  0
    185 1      0.00     0.00      0.00     0.00    1 1.0111242   -10.27709  345.00   1   1.040   0.950    26.72    -0.00 0  0
    186 1      0.00     0.00      0.00     0.00    1 1.0087510   -20.71594  345.00   1   1.040   0.950    26.73    -0.00 0  0
    187 1      0.00     0.00      0.00     0.00    1 1.0194505   -18.78070  345.00   1   1.040   0.950    26.73    -0.00 0  0
    188 1      0.00     0.00      0.00     0.00    1 1.0176601    -3.54646  345.00   1   1.040   0.950    26.72    -0.00 0  0
    189 1      0.00     0.00      0.00     0.00    1 1.0174487    -4.12848  345.00   1   1.040   0.950    26.72    -0.00 0  0
    190 1      0.00     0.00      0.00     0.00    1 1.0163822    -9.37131  345.00   1   1.040   0.950    26.72    -0.00 0  0
    191 1      0.00     0.00      0.00     0.00    1 1.0177071   -13.20984  345.00   1   1.040   0.950    26.71     0.00 0  0
    192 1      0.00     0.00      0.00     0.00    1 1.0122140   -17.33829  230.00   1   1.040   0.950    26.71     0.00 0  0
    193 1      0.00     0.00      0.00     0.00    1 1.0155328   -16.40490  345.00   1   1.040   0.950    26.71     0.00 0  0
    194 1      0.00     0.00      0.00     0.00    1 1.0136603   -18.30738  345.00   1   1.040   0.950    26.70     0.00 0  0
    195 1      0.00     0.00      0.00     0.00    1 0.9864628   -19.59344  230.00   1   1.040   0.950    26.72    -0.00 0  0
    196 1      0.00     0.00      0.00     0.00    1 0.9900128   -18.00765  345.00   1   1.040   0.950    26.72    -0.00 0  0
    197 1      0.00     0.00      0.00     0.00    1 0.9929692   -20.24594  230.00   1   1.040   0.950    26.72    -0.00 0  0
    198 1      0.00     0.00      0.00     0.00    1 0.9924659   -17.82078  345.00   1   1.040   0.950    26.72    -0.00 0  0
    199 1      0.00     0.00      0.00     0.00    1 0.9963986   -11.30755  345.00   1   1.040   0.950    26.72    -0.00 0  0
    200 1      0.00     0.00      0.00     0.00    1 1.0107192   -14.05073  345.00   1   1.040   0.950    26.72    -0.00 0  0
...
];

%% generator data 
mpc.gen = [
      1      3.81    -52.00     35.00    -52.00  1.0200    100.00 1    338.00      3.00     81.31   9999.90   -500.00   1500.00   -500.00   1500.00 0 0 0 0   0.0000 0 0 0 0
      3    378.03    -26.97    157.00   -141.00  1.0200    100.00 1    686.00    298.00      0.00      0.00      0.00      0.00      0.00      0.00 0 0 0 0   0.0000 0 0 0 0
      7    176.33    157.06    169.00   -138.00  1.0200    100.00 1    674.00    139.00      0.00      0.00      0.00      0.00      0.00      0.00 0 0 0 0   0.0000 0 0 0 0
      8    239.76    107.35    240.00   -125.00  1.0200    100.00 1    611.00    189.00      0.00      0.00      0.00      0.00      0.00      0.00 0 0 0 0   0.0000 0 0 0 0
     10   1965.08    135.97    594.00   -242.00  1.0200    100.00 1   2271.00   1406.00      0.00      0.00      0.00      0.00      0.00      0.00 0 0 0 0   0.0000 0 0 0 0
     24    365.35    114.00    114.00   -108.00  1.0200    100.00 1    541.00    288.00      0.00      0.00      0.00      0.00      0.00      0.00 0 0 0 0   0.0000 0 0 0 0
     26    152.23    -25.34     81.00    -66.00  1.0200    100.00 1    300.00    120.00      0.00      0.00      0.00      0.00      0.00      0.00 0 0 0 0   0.0000 0 0 0 0
     28    274.01     67.76    181.00   -120.00  1.0200    100.00 1    592.00    216.00      0.00      0.00      0.00      0.00      0.00      0.00 0 0 0 0   0.0000 0 0 0 0
     30    158.57    -59.00     89.00    -59.00  1.0200    100.00 1    263.00    125.00      0.00      0.00      0.00      0.00      0.00      0.00 0 0 0 0   0.0000 0 0 0 0
     31    305.72     38.63    179.00   -165.00  1.0200    100.00 1    800.00    241.00      0.00      0.00      0.00      0.00      0.00      0.00 0 0 0 0   0.0000 0 0 0 0
     32    206.78      4.11    171.00   -140.00  1.0200    100.00 1    683.00    163.00      0.00      0.00      0.00      0.00      0.00      0.00 0 0 0 0   0.0000 0 0 0 0
     33    480.78    193.37    202.00   -134.00  1.0200    100.00 1    664.00    379.00      0.00      0.00      0.00      0.00      0.00      0.00 0 0 0 0   0.0000 0 0 0 0
     34    374.23    102.12    391.00   -136.00  1.0200    100.00 1   1237.00    295.00      0.00      0.00      0.00      0.00      0.00      0.00 0 0 0 0   0.0000 0 0 0 0
     35   1172.15    244.70    416.00   -151.00  1.0200    100.00 1   1386.00    924.00      0.00      0.00      0.00      0.00      0.00      0.00 0 0 0 0   0.0000 0 0 0 0
     36    177.60     71.02    142.00   -117.00  1.0200    100.00 1    588.00    140.00      0.00      0.00      0.00      0.00      0.00      0.00 0 0 0 0   0.0000 0 0 0 0
     37    126.86     35.15    213.00   -116.00  1.0200    100.00 1    567.00    100.00      0.00      0.00      0.00      0.00      0.00      0.00 0 0 0 0   0.0000 0 0 0 0
     38    263.86     11.39    202.00   -178.00  1.0200    100.00 1    872.00    208.00      0.00      0.00      0.00      0.00      0.00      0.00 0 0 0 0   0.0000 0 0 0 0
     49    405.94     83.91    164.00   -129.00  1.0200    100.00 1    607.00    320.00      0.00      0.00      0.00      0.00      0.00      0.00 0 0 0 0   0.0000 0 0 0 0
     52    205.51    137.72    630.00   -166.00  1.0200    100.00 1   1642.00    162.00      0.00      0.00      0.00      0.00      0.00      0.00 0 0 0 0   0.0000 0 0 0 0
     54    263.86     10.33    198.00   -113.00  1.0200    100.00 1    546.00    208.00      0.00      0.00      0.00      0.00      0.00      0.00 0 0 0 0   0.0000 0 0 0 0
     56    527.72    143.90    151.00   -150.00  1.0200    100.00 1    728.00    416.00      0.00      0.00      0.00      0.00      0.00      0.00 0 0 0 0   0.0000 0 0 0 0
     69    189.02     99.86    150.00   -103.00  1.0200    100.00 1    520.00    149.00      0.00      0.00      0.00      0.00      0.00      0.00 0 0 0 0   0.0000 0 0 0 0
     72    107.83     79.00     79.00    -57.00  1.0200    100.00 1    263.00     85.00      0.00      0.00      0.00      0.00      0.00      0.00 0 0 0 0   0.0000 0 0 0 0
     76    551.82    154.07    278.00   -182.00  1.0200    100.00 1    882.00    435.00      0.00      0.00      0.00      0.00      0.00      0.00 0 0 0 0   0.0000 0 0 0 0
     78    164.91    -62.00     52.00    -62.00  1.0200    100.00 1    288.00    130.00      0.00      0.00      0.00      0.00      0.00      0.00 0 0 0 0   0.0000 0 0 0 0
     80    143.35    -67.00    175.00    -67.00  1.0200    100.00 1    578.00    113.00      0.00      0.00      0.00      0.00      0.00      0.00 0 0 0 0   0.0000 0 0 0 0
     82    223.27    -58.00    119.00    -58.00  1.0200    100.00 1    313.00    176.00      0.00      0.00      0.00      0.00      0.00      0.00 0 0 0 0   0.0000 0 0 0 0
     84    214.39      7.34    194.00   -180.00  1.0200    100.00 1    888.00    169.00      0.00      0.00      0.00      0.00      0.00      0.00 0 0 0 0   0.0000 0 0 0 0
    103    263.86    192.28    212.00   -188.00  1.0200    100.00 1    916.00    208.00      0.00      0.00      0.00      0.00      0.00      0.00 0 0 0 0   0.0000 0 0 0 0
    120    204.24    196.00    196.00   -172.00  1.0200    100.00 1    845.00    161.00      0.00      0.00      0.00      0.00      0.00      0.00 0 0 0 0   0.0000 0 0 0 0
    128    228.34     18.94    104.00    -76.00  1.0200    100.00 1    378.00    180.00      0.00      0.00      0.00      0.00      0.00      0.00 0 0 0 0   0.0000 0 0 0 0
    130    145.88     87.00     87.00    -56.00  1.0200    100.00 1    267.00    115.00      0.00      0.00      0.00      0.00      0.00      0.00 0 0 0 0   0.0000 0 0 0 0
    141   1112.53    240.99    452.00   -174.00  1.0200    100.00 1   1691.00    877.00      0.00      0.00      0.00      0.00      0.00      0.00 0 0 0 0   0.0000 0 0 0 0
    143    196.63     97.79     99.00    -60.00  1.0200    100.00 1    303.00    155.00      0.00      0.00      0.00      0.00      0.00      0.00 0 0 0 0   0.0000 0 0 0 0
    146    380.57    137.00    137.00   -122.00  1.0200    100.00 1    607.00    300.00      0.00      0.00      0.00      0.00      0.00      0.00 0 0 0 0   0.0000 0 0 0 0
    149    235.95     46.19     73.00    -57.00  1.0200    100.00 1    274.00    186.00      0.00      0.00      0.00      0.00      0.00      0.00 0 0 0 0   0.0000 0 0 0 0
    157    365.35     67.41    173.00   -110.00  1.0200    100.00 1    521.00    288.00      0.00      0.00      0.00      0.00      0.00      0.00 0 0 0 0   0.0000 0 0 0 0
    162    291.77     97.94    176.00   -130.00  1.0200    100.00 1    636.00    230.00      0.00      0.00      0.00      0.00      0.00      0.00 0 0 0 0   0.0000 0 0 0 0
    165    992.01    102.02    402.00   -141.00  1.0200    100.00 1   1304.00    782.00      0.00      0.00      0.00      0.00      0.00      0.00 0 0 0 0   0.0000 0 0 0 0
    166    351.39    108.73    202.00   -168.00  1.0200    100.00 1    830.00    277.00      0.00      0.00      0.00      0.00      0.00      0.00 0 0 0 0   0.0000 0 0 0 0
    175    265.13     56.50    233.00   -128.00  1.0200    100.00 1    626.00    209.00      0.00      0.00      0.00      0.00      0.00      0.00 0 0 0 0   0.0000 0 0 0 0
    176    109.10     80.37     86.00    -56.00  1.0200    100.00 1    267.00     86.00      0.00      0.00      0.00      0.00      0.00      0.00 0 0 0 0   0.0000 0 0 0 0
];

%% generator cost data
mpc.gencost = [
2 0 0 4   0.0000    0.001   17.500   450.00
2 0 0 4   0.0000    0.001   24.757  1505.67
2 0 0 4   0.0000    0.002   24.400  3342.77
2 0 0 4   0.0000    0.005   30.562  1114.42
2 0 0 4   0.0000    0.001   25.697  6313.07
2 0 0 4   0.0000    0.002   27.100  1297.89
2 0 0 4   0.0000    0.005   27.249   783.88
2 0 0 4   0.0000    0.002   26.174  1372.76
2 0 0 4   0.0000    0.006   26.053   655.13
2 0 0 4   0.0000    0.002   29.298  3418.85
2 0 0 4   0.0000    0.002   29.135  1458.22
2 0 0 4   0.0000    0.001   23.899  4734.80
2 0 0 4   0.0000    0.004   29.960  3677.05
2 0 0 4   0.0000    0.001   26.605  6691.85
2 0 0 4   0.0000    0.002   26.400  3342.77
2 0 0 4   0.0000    0.004   52.785  7415.02
2 0 0 4   0.0000    0.003   27.114  3844.19
2 0 0 4   0.0000    0.002   25.878  1390.96
2 0 0 4   0.0000    0.003   21.871  2841.36
2 0 0 4   0.0000    0.002   26.558  1284.25
2 0 0 4   0.0000    0.001   24.540  1581.44
2 0 0 4   0.0000    0.002   25.780  3523.95
2 0 0 4   0.0000    0.003   22.330  2325.41
2 0 0 4   0.0000    0.001   25.323  1978.07
2 0 0 4   0.0000    0.005   26.473   732.25
2 0 0 4   0.0000    0.002   26.356  1347.98
2 0 0 4   0.0000    0.008   27.364   550.89
2 0 0 4   0.0000    0.004   31.864  3610.20
2 0 0 4   0.0000    0.001   25.117  2036.75
2 0 0 4   0.0000    0.004   32.314  3777.33
2 0 0 4   0.0000    0.004   26.167   947.57
2 0 0 4   0.0000    0.006   27.791   710.04
2 0 0 4   0.0000    0.003   27.697  4313.07
2 0 0 4   0.0000    0.005   26.616   773.70
2 0 0 4   0.0000    0.002   26.010  1398.04
2 0 0 4   0.0000    0.006   27.475   721.30
2 0 0 4   0.0000    0.006   32.756  1215.71
2 0 0 4   0.0000    0.002   25.916  1460.47
2 0 0 4   0.0000    0.001   26.918  6534.03
2 0 0 4   0.0000    0.001   25.325  1860.51
2 0 0 4   0.0000    0.002   25.962  1438.95
2 0 0 4   0.0000    0.006   27.924   713.43
];

%% branch data
mpc.branch = [
      1       2  0.005978  0.120624   1.98515    414.51    414.51    414.51 1.00000    0.000 1    0.00    0.00      3.81    -52.00     -3.56   -174.03 0 0 0 0
      2      30  0.000000  0.018100   0.00000   1000.00   1000.00   1000.00 1.00000    0.000 1    0.00    0.00   -158.57     63.90    158.57    -59.00 0 0 0 0
      2      39  0.008680  0.060198   0.52937    530.03    530.03    530.03 1.00000    0.000 1    0.00    0.00    212.04    -24.59   -208.42     -6.81 0 0 0 0
      2     139  0.003390  0.023178   0.20974    530.03    530.03    530.03 1.00000    0.000 1    0.00    0.00     93.79      4.71    -93.51    -25.28 0 0 0 0
      2     181  0.007607  0.052755   0.46393    530.03    530.03    530.03 1.00000    0.000 1    0.00    0.00   -201.32     22.85    204.34    -51.84 0 0 0 0
      2     201  0.002742  0.018748   0.16965    530.03    530.03    530.03 1.00000    0.000 1    0.00    0.00    -40.20     80.36     40.45    -96.75 0 0 0 0
      3      18  0.003829  0.158129   0.09685    316.20    316.20    316.20 1.00000    0.000 1    0.00    0.00     88.32     18.32    -88.01    -15.42 0 0 0 0
      3     181  0.000638  0.030000   0.00000    400.00    400.00    400.00 1.00000    0.000 1    0.00    0.00    289.71    -45.30   -289.18     70.09 0 0 0 0
      4      75  0.016845  0.038117   0.00951    107.32    107.32    107.32 1.00000    0.000 1    0.00    0.00     19.95     11.66    -19.86    -12.37 0 0 0 0
      4     182  0.000889  0.040000   0.00000    300.00    300.00    300.00 1.00000    0.000 1    0.00    0.00    -89.95    -28.95     90.03     32.61 0 0 0 0
      5       8  0.002959  0.039331   0.08406    578.83    578.83    578.83 1.00000    0.000 1    0.00    0.00   -114.85    -62.70    115.35     60.83 0 0 0 0
      5     183  0.001261  0.046667   0.00000    150.00    150.00    150.00 1.00000    0.000 1    0.00    0.00     13.14    -36.90    -13.12     37.63 0 0 0 0
      5     184  0.045023  0.111012   0.17939    178.87    178.87    178.87 1.00000    0.000 1    0.00    0.00   -112.39     25.00    118.69    -27.56 0 0 0 0
      5     207  0.001124  0.013276   0.03027    541.39    541.39    541.39 1.00000    0.000 1    0.00    0.00    139.19     47.74   -138.94    -47.76 0 0 0 0
      6       7  0.062002  0.145750   0.03365    107.32    107.32    107.32 1.00000    0.000 1    0.00    0.00     95.27    -38.20    -88.99     49.50 0 0 0 0
      6      31  0.000000  0.025000   0.00000   1100.00   1100.00   1100.00 1.00000    0.000 1    0.00    0.00   -305.72    -15.82    305.72     38.63 0 0 0 0
      6      70  0.033638  0.077688   0.01859    107.32    107.32    107.32 1.00000    0.000 1    0.00    0.00    -78.00     39.20     80.52    -35.28 0 0 0 0
      6     184  0.000297  0.014545   0.00000    550.00    550.00    550.00 1.00000    0.000 1    0.00    0.00    216.00    -15.79   -215.87     22.43 0 0 0 0
      6     185  0.000556  0.026667   0.00000    450.00    450.00    450.00 1.00000    0.000 1    0.00    0.00      2.39      8.24     -2.39     -8.22 0 0 0 0
      7     186  0.000336  0.017143   0.00000    700.00    700.00    700.00 1.00000    0.000 1    0.00    0.00    156.71     65.87   -156.62    -61.11 0 0 0 0
      8      54  0.000326  0.005080   0.01216    665.28    665.28    665.28 1.00000    0.000 1    0.00    0.00   -204.14     13.51    204.27    -12.73 0 0 0 0
      8     187  0.000196  0.010000   0.00000    700.00    700.00    700.00 1.00000    0.000 1    0.00    0.00    228.31      3.63   -228.22      1.38 0 0 0 0
    187       9  0.006838  0.047422   0.41703    530.03    530.03    530.03 1.00000    0.000 1    0.00    0.00      0.03    -43.56      0.00      0.00 0 0 0 0
     10      11  0.000315  0.008557   0.00495    566.01    566.01    566.01 1.00000    0.000 1    0.00    0.00    223.73     23.15   -223.57    -19.50 0 0 0 0
     10      32  0.000000  0.020000   0.00000   1000.00   1000.00   1000.00 1.00000    0.000 1    0.00    0.00   -206.78      4.11    206.78      4.11 0 0 0 0
     10      70  0.005799  0.067267   0.02063    324.83    324.83    324.83 1.00000    0.000 1    0.00    0.00    163.52      7.05   -162.02      8.15 0 0 0 0
     10     188  0.000073  0.003750   0.00000   3200.00   3200.00   3200.00 1.00000    0.000 1    0.00    0.00   1713.88     83.06  -1711.80     23.06 0 0 0 0
     12      11  0.001279  0.043500   0.00000    100.00    100.00    100.00 1.00000    0.000 1    0.00    0.00    -35.02     -0.03     35.04      0.55 0 0 0 0
     11     173  0.016673  0.124076   0.03486    237.35    237.35    237.35 1.00000    0.000 1    0.00    0.00     95.95     18.67    -94.40    -10.62 0 0 0 0
     11     189  0.001500  0.060000   0.00000    200.00    200.00    200.00 1.00000    0.000 1    0.00    0.00     92.58      0.29    -92.46      4.68 0 0 0 0
     12      13  0.003529  0.120000   0.00000    100.00    100.00    100.00 1.00000    0.000 1    0.00    0.00     32.91     -0.59    -32.88      1.85 0 0 0 0
    188      13  0.000109  0.001949   0.02003   1045.73   1045.73   1045.73 1.00000    0.000 1    0.00    0.00    499.46     -5.06   -499.20      7.68 0 0 0 0
     13     190  0.000846  0.017908   0.26779   1060.07   1060.07   1060.07 1.00000    0.000 1    0.00    0.00    532.08     -9.53   -529.76     30.84 0 0 0 0
     14      15  0.036111  0.089040   0.14388    178.87    178.87    178.87 1.00000    0.000 1    0.00    0.00     70.31    -26.41    -68.46     16.21 0 0 0 0
     14     177  0.018818  0.067761   0.11459    229.46    229.46    229.46 1.00000    0.000 1    0.00    0.00     68.84     -9.10    -67.98      0.49 0 0 0 0
     14     190  0.000233  0.011667   0.00000    600.00    600.00    600.00 1.00000    0.000 1    0.00    0.00   -236.54      7.70    236.66     -1.37 0 0 0 0
     15      61  0.004135  0.027504   0.05200    353.36    353.36    353.36 1.00000    0.000 1    0.00    0.00    106.61    -30.85   -106.12     28.80 0 0 0 0
    184      15  0.003431  0.042042   0.08894    541.39    541.39    541.39 1.00000    0.000 1    0.00    0.00    119.02      0.88   -118.55     -4.21 0 0 0 0
     15     191  0.002059  0.070000   0.00000    100.00    100.00    100.00 1.00000    0.000 1    0.00    0.00    -40.55     -8.91     40.59     10.09 0 0 0 0
     16     149  0.014227  0.046950   0.01231    137.68    137.68    137.68 1.00000    0.000 1    0.00    0.00    -55.35     -9.16     55.79      9.34 0 0 0 0
     16     192  0.001000  0.040000   0.00000    200.00    200.00    200.00 1.00000    0.000 1    0.00    0.00    -28.90     -9.95     28.91     10.32 0 0 0 0
     16     193  0.001116  0.048000   0.00000    250.00    250.00    250.00 1.00000    0.000 1    0.00    0.00    -59.01    -13.81     59.05     15.55 0 0 0 0
     17      18  0.056699  0.194499   0.04709    137.68    137.68    137.68 1.00000    0.000 1    0.00    0.00     -6.72      0.55      6.75     -5.07 0 0 0 0
     17     145  0.046728  0.104525   0.02669    107.32    107.32    107.32 1.00000    0.000 1    0.00    0.00    -20.22      5.02     20.43     -7.18 0 0 0 0
     17     194  0.002162  0.080000   0.00000    150.00    150.00    150.00 1.00000    0.000 1    0.00    0.00    -42.35    -25.59     42.40     27.58 0 0 0 0
     19      20  0.000426  0.020000   0.00000    400.00    400.00    400.00 1.00000    0.000 1    0.00    0.00   -224.97    -31.00    225.19     41.40 0 0 0 0
     19      33  0.000700  0.014200   0.00000   1000.00   1000.00   1000.00 1.00000    0.000 1    0.00    0.00   -365.25   -142.10    366.34    164.09 0 0 0 0
     19      96  0.055097  0.129519   0.02990    107.32    107.32    107.32 1.00000    0.000 1    0.00    0.00     12.34      0.69    -12.25     -3.42 0 0 0 0
     19     105  0.000528  0.012761   0.00724    522.03    522.03    522.03 1.00000    0.000 1    0.00    0.00    191.04     52.75   -190.83    -48.41 0 0 0 0
     19     110  0.005086  0.023707   0.00609    173.53    173.53    173.53 1.00000    0.000 1    0.00    0.00     50.07     18.06    -49.92    -17.98 0 0 0 0
     19     118  0.000642  0.013449   0.00755    474.70    474.70    474.70 1.00000    0.000 1    0.00    0.00    250.24     63.26   -249.81    -54.96 0 0 0 0
     19     175  0.056202  0.251624   0.07017    173.53    173.53    173.53 1.00000    0.000 1    0.00    0.00    -40.84     -1.79     41.78     -1.10 0 0 0 0
     19     195  0.002353  0.080000   0.00000    100.00    100.00    100.00 1.00000    0.000 1    0.00    0.00     38.71     11.20    -38.67     -9.89 0 0 0 0
     19     196  0.003529  0.120000   0.00000    100.00    100.00    100.00 1.00000    0.000 1    0.00    0.00      3.08      4.79     -3.08     -4.75 0 0 0 0
     20      34  0.000900  0.018000   0.00000    600.00    600.00    600.00 1.00000    0.000 1    0.00    0.00   -307.76    -65.22    308.64     82.89 0 0 0 0
     21     129  0.006980  0.035005   0.01005    187.39    187.39    187.39 1.00000    0.000 1    0.00    0.00     76.36     18.55    -75.92    -17.30 0 0 0 0
     21     130  0.007383  0.060698   0.01884    261.01    261.01    261.01 1.00000    0.000 1    0.00    0.00    -97.12    -38.35     97.94     43.19 0 0 0 0
     21     197  0.001441  0.053333   0.00000    150.00    150.00    150.00 1.00000    0.000 1    0.00    0.00    -17.97     -8.58     17.98      8.80 0 0 0 0
     21     198  0.001500  0.060000   0.00000    200.00    200.00    200.00 1.00000    0.000 1    0.00    0.00    -84.97     -2.98     85.08      7.42 0 0 0 0
     22      23  0.013985  0.034482   0.05572    178.87    178.87    178.87 1.00000    0.000 1    0.00    0.00     85.15    -41.35    -83.92     38.80 0 0 0 0
     22      35  0.000000  0.014300   0.00000   1950.00   1950.00   1950.00 1.00000    0.000 1    0.00    0.00  -1172.15    -47.63   1172.15    244.70 0 0 0 0
     22     199  0.000131  0.006667   0.00000   1050.00   1050.00   1050.00 1.00000    0.000 1    0.00    0.00    976.48     56.14   -975.23      7.73 0 0 0 0
     23      24  0.043009  0.106048   0.17137    178.87    178.87    178.87 1.00000    0.000 1    0.00    0.00     37.28    -35.61    -36.37     20.43 0 0 0 0
     23      36  0.000500  0.027200   0.00000   1000.00   1000.00   1000.00 1.00000    0.000 1    0.00    0.00   -177.42    -61.46    177.60     71.02 0 0 0 0
     23      90  0.006901  0.020365   0.03648    206.75    206.75    206.75 1.00000    0.000 1    0.00    0.00     64.09     20.39    -63.78    -23.08 0 0 0 0
     23      91  0.012793  0.054395   0.09557    262.53    262.53    262.53 1.00000    0.000 1    0.00    0.00     80.69     16.26    -79.80    -21.87 0 0 0 0
     24     177  0.002078  0.014281   0.02528    353.36    353.36    353.36 1.00000    0.000 1    0.00    0.00    144.61     38.56   -144.16    -38.02 0 0 0 0
     24     200  0.000372  0.017500   0.00000    400.00    400.00    400.00 1.00000    0.000 1    0.00    0.00    165.52     24.70   -165.42    -19.94 0 0 0 0
     25      37  0.000600  0.023200   0.00000   1000.00   1000.00   1000.00 1.00000    0.000 1    0.00    0.00   -126.76    -31.28    126.86     35.15 0 0 0 0
     25     133  0.006133  0.048676   0.09258    395.58    395.58    395.58 1.00000    0.000 1    0.00    0.00     27.20     30.08    -27.09    -38.46 0 0 0 0
     25     168  0.018164  0.045274   0.07160    178.87    178.87    178.87 1.00000    0.000 1    0.00    0.00     52.22     12.55    -51.69    -18.43 0 0 0 0
     25     201  0.001261  0.046667   0.00000    150.00    150.00    150.00 1.00000    0.000 1    0.00    0.00    -20.26    -26.48     20.28     26.99 0 0 0 0
     26      42  0.007136  0.049490   0.43522    530.03    530.03    530.03 1.00000    0.000 1    0.00    0.00    108.68    -48.71   -107.83      9.08 0 0 0 0
     26      43  0.001333  0.009112   0.08245    530.03    530.03    530.03 1.00000    0.000 1    0.00    0.00     44.30      4.90    -44.27    -13.29 0 0 0 0
     26     202  0.010447  0.072454   0.63716    530.03    530.03    530.03 1.00000    0.000 1    0.00    0.00    -81.73     -1.98     82.49    -58.22 0 0 0 0
     27     160  0.022175  0.054676   0.08835    178.87    178.87    178.87 1.00000    0.000 1    0.00    0.00     42.73     14.00    -42.25    -21.46 0 0 0 0
     27     202  0.000519  0.023333   0.00000    300.00    300.00    300.00 1.00000    0.000 1    0.00    0.00   -123.31    -35.16    123.39     39.01 0 0 0 0
     28      77  0.066564  0.156472   0.03612    107.32    107.32    107.32 1.00000    0.000 1    0.00    0.00     39.18     -3.89    -38.20      2.52 0 0 0 0
     28      88  0.001156  0.018601   0.00608    418.29    418.29    418.29 1.00000    0.000 1    0.00    0.00    104.55     35.68   -104.41    -34.13 0 0 0 0
     28     203  0.005926  0.160000   0.00000     50.00     50.00     50.00 1.00000    0.000 1    0.00    0.00      2.91      2.95     -2.91     -2.93 0 0 0 0
     28     204  0.003529  0.120000   0.00000    100.00    100.00    100.00 1.00000    0.000 1    0.00    0.00      1.88     -0.39     -1.88      0.39 0 0 0 0
     29      38  0.000800  0.015600   0.00000   1200.00   1200.00   1200.00 1.00000    0.000 1    0.00    0.00   -263.32     -0.93    263.86     11.39 0 0 0 0
     29      84  0.009549  0.091679   0.02681    283.00    283.00    283.00 1.00000    0.000 1    0.00    0.00     62.79     -9.48    -62.42     10.25 0 0 0 0
     29     205  0.000209  0.010667   0.00000    750.00    750.00    750.00 1.00000    0.000 1    0.00    0.00    127.36     -8.69   -127.33     10.37 0 0 0 0
     39      43  0.005771  0.040026   0.35199    530.03    530.03    530.03 1.00000    0.000 1    0.00    0.00    134.32    -14.17   -133.33    -15.77 0 0 0 0
     40      43  0.003602  0.023140   0.23770    530.03    530.03    530.03 1.00000    0.000 1    0.00    0.00    -76.12    -23.43     76.33      0.23 0 0 0 0
    202      41  0.002711  0.018804   0.16536    530.03    530.03    530.03 1.00000    0.000 1    0.00    0.00    103.85     10.22   -103.55    -24.86 0 0 0 0
     42     167  0.006872  0.049342   0.40438    530.03    530.03    530.03 1.00000    0.000 1    0.00    0.00     -8.74    -41.37      8.77     -1.44 0 0 0 0
     44      55  0.007424  0.027027   0.04470    229.46    229.46    229.46 1.00000    0.000 1    0.00    0.00    -36.69     13.31     36.80    -17.46 0 0 0 0
     44     206  0.000372  0.017500   0.00000    400.00    400.00    400.00 1.00000    0.000 1    0.00    0.00    -27.52    -31.08     27.53     31.38 0 0 0 0
     45      52  0.000887  0.008362   0.07659    652.53    652.53    652.53 1.00000    0.000 1    0.00    0.00    -50.61    -40.65     50.64     33.03 0 0 0 0
    206      45  0.000420  0.002856   0.02611    530.03    530.03    530.03 1.00000    0.000 1    0.00    0.00     25.10     12.33    -25.10    -15.00 0 0 0 0
     45     212  0.001035  0.009761   0.08940    652.53    652.53    652.53 1.00000    0.000 1    0.00    0.00    -23.83     30.67     23.85    -39.70 0 0 0 0
     46      47  0.016826  0.106284   0.02894    212.01    212.01    212.01 1.00000    0.000 1    0.00    0.00     50.45     19.38    -49.92    -18.73 0 0 0 0
     46     207  0.000370  0.017778   0.00000    450.00    450.00    450.00 1.00000    0.000 1    0.00    0.00   -138.86    -43.80    138.94     47.76 0 0 0 0
     47      63  0.038101  0.089565   0.02068    107.32    107.32    107.32 1.00000    0.000 1    0.00    0.00    -28.28     -3.51     28.63      2.44 0 0 0 0
     48     150  0.003523  0.024436   0.21489    530.03    530.03    530.03 1.00000    0.000 1    0.00    0.00     93.20      4.85    -92.88    -23.48 0 0 0 0
    182      48  0.003417  0.023699   0.20841    530.03    530.03    530.03 1.00000    0.000 1    0.00    0.00    191.57     22.46   -190.29    -34.19 0 0 0 0
     49      65  0.001800  0.037712   0.02118    474.70    474.70    474.70 1.00000    0.000 1    0.00    0.00    138.61     39.54   -138.25    -34.15 0 0 0 0
     49     208  0.001000  0.040000   0.00000    200.00    200.00    200.00 1.00000    0.000 1    0.00    0.00    106.49      9.35   -106.38     -4.95 0 0 0 0
     49     209  0.001500  0.060000   0.00000    200.00    200.00    200.00 1.00000    0.000 1    0.00    0.00    104.29     16.40   -104.13     -9.97 0 0 0 0
     50      65  0.005258  0.037515   0.01148    237.35    237.35    237.35 1.00000    0.000 1    0.00    0.00    -79.22    -14.67     79.57     15.98 0 0 0 0
     50     210  0.003529  0.120000   0.00000    100.00    100.00    100.00 1.00000    0.000 1    0.00    0.00    -13.45     -9.91     13.46     10.25 0 0 0 0
     51      68  0.004060  0.037344   0.01192    283.00    283.00    283.00 1.00000    0.000 1    0.00    0.00    -55.76     -3.49     55.89      3.51 0 0 0 0
     51      72  0.000709  0.007194   0.00234    304.04    304.04    304.04 1.00000    0.000 1    0.00    0.00    -21.69    -22.04     21.70     21.88 0 0 0 0
    183      52  0.002047  0.021637   0.20301    707.51    707.51    707.51 1.00000    0.000 1    0.00    0.00      0.99    -58.81     -0.94     38.40 0 0 0 0
    206      52  0.000643  0.006662   0.06506    707.51    707.51    707.51 1.00000    0.000 1    0.00    0.00    -52.63    -43.70     52.66     37.24 0 0 0 0
     53      57  0.006894  0.059124   0.01683    261.01    261.01    261.01 1.00000    0.000 1    0.00    0.00     -2.81     34.98      2.90    -35.78 0 0 0 0
     53      73  0.003976  0.033438   0.00991    261.01    261.01    261.01 1.00000    0.000 1    0.00    0.00     34.02    -17.13    -33.96     16.66 0 0 0 0
     53     211  0.000369  0.018462   0.00000    650.00    650.00    650.00 1.00000    0.000 1    0.00    0.00   -190.71    -57.71    190.87     65.29 0 0 0 0
     55      61  0.034539  0.120369   0.21762    229.46    229.46    229.46 1.00000    0.000 1    0.00    0.00    -51.96      2.31     52.93    -21.20 0 0 0 0
    208      55  0.006202  0.018912   0.03169    206.75    206.75    206.75 1.00000    0.000 1    0.00    0.00     91.96      1.37    -91.45     -3.08 0 0 0 0
     55     212  0.001261  0.046667   0.00000    150.00    150.00    150.00 1.00000    0.000 1    0.00    0.00      9.22     -7.32     -9.22      7.38 0 0 0 0
    185      56  0.000908  0.009601   0.09009    707.51    707.51    707.51 1.00000    0.000 1    0.00    0.00    101.15   -107.07   -100.97     99.73 0 0 0 0
    191      56  0.000301  0.008151   0.12418   1246.50   1246.50   1246.50 1.00000    0.000 1    0.00    0.00   -520.28     -5.21    521.06     13.62 0 0 0 0
     57      60  0.018675  0.042258   0.01054    107.32    107.32    107.32 1.00000    0.000 1    0.00    0.00    -54.21     19.51     54.88    -18.96 0 0 0 0
     58      62  0.002141  0.014851   0.13060    530.03    530.03    530.03 1.00000    0.000 1    0.00    0.00     97.53     16.24    -97.32    -27.85 0 0 0 0
     58      66  0.001447  0.010038   0.08828    530.03    530.03    530.03 1.00000    0.000 1    0.00    0.00    -46.72    -32.08     46.76     23.45 0 0 0 0
    185      58  0.002185  0.015152   0.13324    530.03    530.03    530.03 1.00000    0.000 1    0.00    0.00    181.96     19.28   -181.23    -27.80 0 0 0 0
    191      59  0.000938  0.006385   0.05837    530.03    530.03    530.03 1.00000    0.000 1    0.00    0.00    226.06     15.85   -225.59    -18.70 0 0 0 0
     59     213  0.000907  0.006172   0.05642    530.03    530.03    530.03 1.00000    0.000 1    0.00    0.00    151.09     -7.67   -150.89      3.24 0 0 0 0
     60      63  0.017610  0.040671   0.00973    107.32    107.32    107.32 1.00000    0.000 1    0.00    0.00     52.86    -12.85    -52.30     13.24 0 0 0 0
     60      64  0.005655  0.040347   0.01235    237.35    237.35    237.35 1.00000    0.000 1    0.00    0.00   -193.26      5.73    195.54      9.34 0 0 0 0
     61     143  0.002057  0.016137   0.03143    395.58    395.58    395.58 1.00000    0.000 1    0.00    0.00     39.83    -43.70    -39.77     40.98 0 0 0 0
    192      61  0.004667  0.025655   0.04713    312.32    312.32    312.32 1.00000    0.000 1    0.00    0.00    -58.77      1.33     58.92     -5.30 0 0 0 0
     61     213  0.000519  0.023333   0.00000    300.00    300.00    300.00 1.00000    0.000 1    0.00    0.00   -150.77      8.41    150.89     -3.24 0 0 0 0
     63      75  0.005417  0.046454   0.01323    261.01    261.01    261.01 1.00000    0.000 1    0.00    0.00    -47.49    -37.79     47.70     38.38 0 0 0 0
     64     214  0.000336  0.017143   0.00000    700.00    700.00    700.00 1.00000    0.000 1    0.00    0.00   -367.55    -56.70    368.03     81.59 0 0 0 0
     66      71  0.001271  0.008811   0.07749    530.03    530.03    530.03 1.00000    0.000 1    0.00    0.00   -116.79    -43.82    116.98     37.24 0 0 0 0
     67      68  0.002882  0.026509   0.00846    283.00    283.00    283.00 1.00000    0.000 1    0.00    0.00    -86.57    -24.75     86.81     26.15 0 0 0 0
     68     215  0.000336  0.017143   0.00000    700.00    700.00    700.00 1.00000    0.000 1    0.00    0.00   -251.10    -58.94    251.33     70.55 0 0 0 0
    189      69  0.001131  0.007735   0.06999    530.03    530.03    530.03 1.00000    0.000 1    0.00    0.00      7.13    -38.22     -7.12     31.05 0 0 0 0
     69     247  0.002929  0.020317   0.17866    530.03    530.03    530.03 1.00000    0.000 1    0.00    0.00    142.27     50.48   -141.60    -64.14 0 0 0 0
     71      76  0.001422  0.009863   0.08674    530.03    530.03    530.03 1.00000    0.000 1    0.00    0.00   -178.88    -58.37    179.37     52.78 0 0 0 0
     72      73  0.000275  0.004586   0.00284    424.03    424.03    424.03 1.00000    0.000 1    0.00    0.00     31.85     38.19    -31.84    -38.35 0 0 0 0
    182      74  0.000498  0.003455   0.03038    530.03    530.03    530.03 1.00000    0.000 1    0.00    0.00    149.21     17.04   -149.10    -19.31 0 0 0 0
    210      74  0.001292  0.011415   0.10343    623.25    623.25    623.25 1.00000    0.000 1    0.00    0.00     31.01     42.51    -30.97    -52.56 0 0 0 0
     74     216  0.000640  0.004357   0.03984    530.03    530.03    530.03 1.00000    0.000 1    0.00    0.00    107.00     52.06   -106.91    -55.41 0 0 0 0
     75     216  0.000638  0.030000   0.00000    400.00    400.00    400.00 1.00000    0.000 1    0.00    0.00   -106.82    -51.04    106.91     55.41 0 0 0 0
    190      76  0.001435  0.009955   0.08755    530.03    530.03    530.03 1.00000    0.000 1    0.00    0.00    119.60    -57.92   -119.36     50.50 0 0 0 0
     76     238  0.003386  0.047034   0.46520    868.25    868.25    868.25 1.00000    0.000 1    0.00    0.00    382.69     26.18   -377.84     -6.26 0 0 0 0
     77      84  0.006198  0.069744   0.01841    304.04    304.04    304.04 1.00000    0.000 1    0.00    0.00    -64.56    -23.36     64.85     24.75 0 0 0 0
     77      89  0.016077  0.099621   0.02821    212.01    212.01    212.01 1.00000    0.000 1    0.00    0.00     71.57     24.42    -70.64    -21.36 0 0 0 0
     77     217  0.005926  0.160000   0.00000     50.00     50.00     50.00 1.00000    0.000 1    0.00    0.00    -21.93     -6.16     21.96      6.99 0 0 0 0
     77     218  0.003529  0.120000   0.00000    100.00    100.00    100.00 1.00000    0.000 1    0.00    0.00    -21.95    -17.28     21.98     18.22 0 0 0 0
     78      79  0.014099  0.097781   0.85988    511.35    511.35    511.35 1.00000    0.000 1    0.00    0.00    137.03    -84.43   -134.39      7.54 0 0 0 0
     78     167  0.005724  0.038942   0.35603    530.03    530.03    530.03 1.00000    0.000 1    0.00    0.00    -66.33     -1.89     66.58    -34.77 0 0 0 0
     79      87  0.008106  0.052075   0.53493    530.03    530.03    530.03 1.00000    0.000 1    0.00    0.00      5.66    -40.85     -5.65    -20.01 0 0 0 0
     80      81  0.005975  0.042908   0.35164    530.03    530.03    530.03 1.00000    0.000 1    0.00    0.00    -75.03     16.73     75.41    -51.67 0 0 0 0
     80      87  0.003558  0.071801   1.18166    696.37    696.37    696.37 1.00000    0.000 1    0.00    0.00    115.78   -107.82   -115.28    -13.52 0 0 0 0
     81      82  0.007764  0.053845   0.47351    530.03    530.03    530.03 1.00000    0.000 1    0.00    0.00   -186.20     26.46    188.93    -57.39 0 0 0 0
     82      83  0.007662  0.053138   0.46730    530.03    530.03    530.03 1.00000    0.000 1    0.00    0.00    -38.86    -22.07     38.97    -26.09 0 0 0 0
     83     219  0.005009  0.034736   0.30546    530.03    530.03    530.03 1.00000    0.000 1    0.00    0.00   -116.05      1.89    116.71    -29.38 0 0 0 0
     84     219  0.000224  0.011429   0.00000   1050.00   1050.00   1050.00 1.00000    0.000 1    0.00    0.00    155.13    -43.04   -155.07     45.88 0 0 0 0
     85     154  0.017306  0.084819   0.15179    289.22    289.22    289.22 1.00000    0.000 1    0.00    0.00    -10.01      3.37     10.04    -18.27 0 0 0 0
    217      85  0.004299  0.043533   0.08806    471.67    471.67    471.67 1.00000    0.000 1    0.00    0.00     54.63     15.04    -54.48    -22.51 0 0 0 0
     86      88  0.044131  0.145633   0.03817    137.68    137.68    137.68 1.00000    0.000 1    0.00    0.00    -18.23    -11.19     18.42      7.98 0 0 0 0
     86     169  0.025279  0.129580   0.03558    187.39    187.39    187.39 1.00000    0.000 1    0.00    0.00    -45.45      5.69     45.99     -6.39 0 0 0 0
     86     220  0.000744  0.032000   0.00000    250.00    250.00    250.00 1.00000    0.000 1    0.00    0.00    -43.10    -23.72     43.12     24.51 0 0 0 0
...